@<TRIPOS>MOLECULE
model1.pdb
 63 62 0 0 0
SMALL
GASTEIGER

@<TRIPOS>ATOM
      1  C        122.8930   55.2560  227.1760 C.2     0  ACE0        0.2233
      2  O        122.9420   54.7710  228.3000 O.2     0  ACE0       -0.2751
      3  CH3      123.9590   56.2320  226.6980 C.3     0  ACE0        0.0946
      4  N        121.8250   55.0540  226.3860 N.am    1  ILE1       -0.2983
      5  CA       121.7920   55.4610  224.9980 C.3     1  ILE1        0.1485
      6  C        120.4990   56.1730  224.6910 C.2     1  ILE1        0.2406
      7  O        120.5090   57.3310  224.2930 O.2     1  ILE1       -0.2733
      8  CB       121.9100   54.2160  224.1000 C.3     1  ILE1        0.0269
      9  CG1      123.2240   53.4820  224.3140 C.3     1  ILE1        0.0021
     10  CG2      121.8250   54.6210  222.6370 C.3     1  ILE1        0.0022
     11  CD       123.1310   52.0750  223.7480 C.3     1  ILE1        0.0001
     12  H        121.0630   54.4020  226.5880 H       1  ILE1        0.1498
     13  N        119.3780   55.4910  224.8700 N.am    2  ILE2       -0.2970
     14  CA       118.1060   56.1320  224.5930 C.3     2  ILE2        0.1485
     15  C        118.0990   57.5060  225.2240 C.2     2  ILE2        0.2406
     16  O        117.7810   58.5010  224.5710 O.2     2  ILE2       -0.2733
     17  CB       116.9610   55.2890  225.1850 C.3     2  ILE2        0.0269
     18  CG1      116.7850   53.9710  224.4480 C.3     2  ILE2        0.0021
     19  CG2      115.6530   56.0570  225.1020 C.3     2  ILE2        0.0022
     20  CD       115.8990   53.0370  225.2570 C.3     2  ILE2        0.0001
     21  H        119.4050   54.5670  225.1870 H       2  ILE2        0.1499
     22  N        118.4760   57.5540  226.4940 N.am    3  ARG3       -0.2970
     23  CA       118.5150   58.7960  227.2480 C.3     3  ARG3        0.1487
     24  C        119.2610   59.8740  226.4690 C.2     3  ARG3        0.2406
     25  O        118.7520   60.9810  226.2710 O.2     3  ARG3       -0.2733
     26  CB       119.2330   58.5540  228.5880 C.3     3  ARG3        0.0327
     27  CG       119.2140   59.7880  229.4750 C.3     3  ARG3        0.0491
     28  CD       119.3670   59.4350  230.9460 C.3     3  ARG3        0.2205
     29  NE       119.2310   60.6150  231.8120 N.pl3   3  ARG3       -0.0865
     30  CZ       119.3390   60.4840  233.1520 C.cat   3  ARG3        0.5346
     31  NH1      119.2160   61.5590  233.9420 N.pl3   3  ARG3        0.1354
     32  NH2      119.5700   59.2790  233.6910 N.pl3   3  ARG3        0.1354
     33  H        118.7370   56.7250  226.9400 H       3  ARG3        0.1499
     34  N        120.4650   59.5310  226.0180 N.am    4  ARG4       -0.2970
     35  CA       121.3250   60.4490  225.2750 C.3     4  ARG4        0.1487
     36  C        120.5660   60.9720  224.0900 C.2     4  ARG4        0.2406
     37  O        120.4210   62.1640  223.8300 O.2     4  ARG4       -0.2733
     38  CB       122.5840   59.7050  224.7940 C.3     4  ARG4        0.0327
     39  CG       123.5590   60.6340  224.0880 C.3     4  ARG4        0.0491
     40  CD       124.9830   60.1040  224.1320 C.3     4  ARG4        0.2205
     41  NE       125.9430   61.0550  223.5540 N.pl3   4  ARG4       -0.0865
     42  CZ       127.2570   60.7470  223.5110 C.cat   4  ARG4        0.5346
     43  NH1      128.1320   61.6150  222.9840 N.pl3   4  ARG4        0.1354
     44  NH2      127.6860   59.5730  223.9950 N.pl3   4  ARG4        0.1354
     45  H        120.7890   58.6260  226.1910 H       4  ARG4        0.1499
     46  N        119.9820   60.0440  223.3680 N.am    5  ILE5       -0.2970
     47  CA       119.2570   60.4580  222.1940 C.3     5  ILE5        0.1485
     48  C        118.0130   61.3200  222.2590 C.2     5  ILE5        0.2406
     49  O        117.7960   62.3010  221.5460 O.2     5  ILE5       -0.2733
     50  CB       118.8390   59.1630  221.4720 C.3     5  ILE5        0.0269
     51  CG1      120.0320   58.2760  221.1550 C.3     5  ILE5        0.0021
     52  CG2      118.1370   59.5000  220.1660 C.3     5  ILE5        0.0022
     53  CD       119.5620   56.8660  220.8400 C.3     5  ILE5        0.0001
     54  H        120.0370   59.1010  223.6190 H       5  ILE5        0.1499
     55  N        117.1780   60.9230  223.2130 N.am    6  ILE6       -0.2980
     56  CA       115.9030   61.5950  223.4240 C.3     6  ILE6        0.1368
     57  C        115.8320   62.6150  224.5510 C.2     6  ILE6        0.2266
     58  O        115.2100   63.6660  224.3900 O.2     6  ILE6       -0.2865
     59  CB       114.8490   60.5100  223.7150 C.3     6  ILE6        0.0256
     60  CG1      114.7360   59.5060  222.5800 C.3     6  ILE6        0.0021
     61  CG2      113.4860   61.1520  223.9190 C.3     6  ILE6        0.0022
     62  CD       114.0240   58.2530  223.0630 C.3     6  ILE6        0.0001
     63  H        117.4240   60.1690  223.7840 H       6  ILE6        0.1498
@<TRIPOS>BOND
     1    52    50    1
     2    53    51    1
     3    51    50    1
     4    50    47    1
     5    49    48    2
     6    47    48    1
     7    47    46    1
     8    48    55   am
     9    60    62    1
    10    60    59    1
    11    10     8    1
    12    43    42    1
    13    55    56    1
    14    55    63    1
    15    46    54    1
    16    46    36   am
    17    56    59    1
    18    56    57    1
    19    42    41    2
    20    42    44    1
    21    41    40    1
    22    59    61    1
    23    11     9    1
    24    37    36    2
    25    39    40    1
    26    39    38    1
    27    36    35    1
    28     8     9    1
    29     8     5    1
    30     7     6    2
    31    58    57    2
    32    18    17    1
    33    18    20    1
    34    16    15    2
    35    14    13    1
    36    14    17    1
    37    14    15    1
    38     6    13   am
    39     6     5    1
    40    38    35    1
    41    13    21    1
    42     5     4    1
    43    19    17    1
    44    15    22   am
    45    35    34    1
    46    34    45    1
    47    34    24   am
    48    25    24    2
    49     4    12    1
    50     4     1   am
    51    24    23    1
    52    22    33    1
    53    22    23    1
    54     3     1    1
    55     1     2    2
    56    23    26    1
    57    26    27    1
    58    27    28    1
    59    28    29    1
    60    29    30    2
    61    30    32    1
    62    30    31    1
